[General]
network = FullOffloadingNetwork
description = "Full offloading network with different reneging rates and deadline policies"
seed-set = ${seed=1, 28, 37, 62, 77, 81, 99, 102, 109, 133, 134, 146, 158, 160, 162, 196, 198, 204, 233, 235, 240, 242, 249, 254, 255, 280, 282, 290, 321, 359, 410, 412, 418, 443, 448, 466, 472, 481, 491, 501, 504, 530, 532, 535, 541, 544, 555, 556, 558, 573, 574, 581, 585, 592, 610, 619, 636, 646, 656, 665, 687, 689, 695, 703, 720, 721, 738, 755, 763, 766, 782, 792, 807, 813, 818, 825, 827, 852, 854, 857, 862, 875, 880, 887, 891, 892, 911, 919, 923, 931, 936, 945, 951, 961, 963, 967, 973, 977, 985, 996}

# Source shared parameters
*.source.interArrivalTime = exponential(120s)

# WiFiQueue shared parameters
*.wifiQueue.serviceTime = exponential(40s)
*.wifiQueue.wifiStateDistribution = exponential(3120s)
*.wifiQueue.cellularStateDistribution = exponential(1524s)
*.wifiQueue.deadlineDistribution = exponential(${renegingTime=1200, 1320, 1500, 1980, 2400, 2700, 3000, 3300, 3600, 3900, 4200, 4500, 4800, 5100, 5400, 5700, 6000, 6600, 7200, 7800, 8400, 9000, 9600, 10200, 10800, 11400, 12000, 12600, 13200, 13800, 14400, 15000, 15600, 16200, 16800, 17400, 18000}s)

# CellularQueue shared parameters
*.cellularQueue.serviceTime = exponential(400s)

# RemoteQueue shared parameters
*.remoteQueue.serviceTime = exponential(1s)

[Config SetupAnalysis]
sim-time-limit = 500000s
*.source.transientAnalysis = true

[Config BatchExecution]
warmup-period = 20000s
**.numJobs = 1000

